105
abc
Bi   10.093386    3.246836    1.402778
Bi    2.587484   -0.461896    1.402774
Bi    6.340435    1.392470    1.402776
Bi    4.966729    0.713719    1.402780
Bi    8.719680    2.568085    1.402783
Bi    3.961158    0.216851    1.402776
Bi    7.714109    2.071217    1.402778
Bi    7.808183   -0.360282    0.948027
Bi    9.181889    0.318469    0.948023
Bi   12.934841    2.172835    0.948025
Bi   11.561134    1.494084    0.948030
Bi   15.314086    3.348450    0.948032
Bi   10.555564    0.997216    0.948025
Bi   14.308515    2.851582    0.948027
Bi    4.866938    1.986191    2.137421
Bi    6.240644    2.664942    2.137416
Bi    1.113987    0.131825    2.137418
Bi   -0.259719   -0.546926    2.137423
Bi    3.493232    1.307440    2.137425
Bi   -1.265290   -1.043794    2.137418
Bi    2.487662    0.810572    2.137421
Bi   11.461346    2.766556    1.682670
Bi    3.955443   -0.942176    1.682666
Bi    7.708394    0.912190    1.682668
Bi    6.334688    0.233439    1.682672
Bi   10.087639    2.087805    1.682674
Bi    5.329118   -0.263429    1.682668
Bi    9.082069    1.590937    1.682670
Bi    6.440232    0.119960    0.668158
Bi    7.813938    0.798711    0.668153
Bi   11.566889    2.653077    0.668155
Bi   10.193183    1.974326    0.668160
Bi   13.946134    3.828692    0.668162
Bi    9.187612    1.477458    0.668155
Bi   12.940563    3.331824    0.668158
Bi   13.034638    0.900325    0.213407
Bi   14.408344    1.579076    0.213403
Bi   18.161295    3.433442    0.213405
Bi   16.787589    2.754691    0.213409
Bi   11.660932    0.221574    0.213411
Bi   15.782018    2.257823    0.213405
Bi   19.534970    4.112189    0.213407
Te    5.813642    1.972252    1.064900
Te    7.187348    2.651003    1.064895
Te    2.060691    0.117886    1.064898
Te    0.686985   -0.560865    1.064902
Te    4.439936    1.293501    1.064904
Te    8.561023    3.329750    1.064898
Te    3.434365    0.796633    1.064900
Te   -1.015230   -0.120140    0.808100
Te    0.358476    0.558611    0.808096
Te    4.111428    2.412977    0.808098
Te    2.737722    1.734226    0.808103
Te    6.490673    3.588592    0.808105
Te    1.732151    1.237358    0.808098
Te    5.485102    3.091724    0.808100
Te   17.214591    3.447381    1.285926
Te    9.708689   -0.261352    1.285921
Te   13.461640    1.593014    1.285924
Te   12.087934    0.914264    1.285928
Te   15.840885    2.768630    1.285930
Te   11.082363    0.417395    1.285924
Te   14.835314    2.271762    1.285926
Te    4.340140    2.566011    1.799522
Te    5.713846    3.244762    1.799518
Te    0.587189    0.711645    1.799520
Te   -0.786517    0.032894    1.799525
Te    2.966434    1.887261    1.799527
Te   -1.792088   -0.463974    1.799520
Te    1.960863    1.390392    1.799522
Te   -1.115375    1.152290    1.542725
Te    0.258332    1.831041    1.542721
Te   -4.868326   -0.702076    1.542723
Te    2.637577    3.006656    1.542727
Te   -2.489081    0.473539    1.542730
Te    1.632006    2.509788    1.542723
Te   -3.494651   -0.023329    1.542725
Te    8.235158    0.332365    2.020528
Te    9.608865    1.011116    2.020524
Te   13.361816    2.865483    2.020526
Te   11.988110    2.186732    2.020531
Te    6.861452   -0.346385    2.020533
Te   10.982539    1.689864    2.020526
Te    5.855882   -0.843254    2.020528
Te    9.666418    2.554150    0.330299
Te   11.040124    3.232901    0.330295
Te    5.913467    0.699784    0.330297
Te    4.539761    0.021033    0.330301
Te    8.292712    1.875400    0.330304
Te   12.413799    3.911649    0.330297
Te    7.287142    1.378531    0.330299
Te    7.964169    2.994871    0.073460
Te    9.337875    3.673622    0.073456
Te    4.211218    1.140505    0.073458
Te    2.837512    0.461754    0.073462
Te    6.590463    2.316120    0.073464
Te    1.831941   -0.035114    0.073458
Te    5.584892    1.819252    0.073460
Te   17.314382    2.174909    0.551285
Te   18.688088    2.853660    0.551281
Te   13.561431    0.320543    0.551283
Te   21.067333    4.029275    0.551288
Te   15.940676    1.496158    0.551290
Te   20.061762    3.532407    0.551283
Te   14.935105    0.999290    0.551285
